Simulation_Workspace/Phase6/results/transformer_lv_ll/fault_summary.csv
Fault_location,Fault_branch_sensor,Phase,Fault_enabled,Initial_window_start_s,Initial_window_end_exclusive_s,Initial_samples,Pre_event_current_RMS_A,Initial_current_waveform_RMS_A,Initial_peak_abs_current_A,Initial_phase_voltage_waveform_RMS_V,Full_window_fundamental_current_RMS_A,Fundamental_window_start_s,Fundamental_window_end_exclusive_s,Fundamental_samples,Initial_window_status,Fundamental_window_status
GSUT_LV,faultLV,A,1,0.15,0.17,100,1.27007863392802e-05,1.88842905174742e-05,2.77678005866706e-05,12611.0268967402,1.83457747238687e-05,0.171,0.21,39,full_initial_cycle_measured,full_post_fault_DFT_windows_measured
GSUT_LV,faultLV,B,1,0.15,0.17,100,1.27007845535181e-05,109684.805693066,178494.887807138,7422.23755555944,98969.7497022883,0.171,0.21,39,full_initial_cycle_measured,full_post_fault_DFT_windows_measured
GSUT_LV,faultLV,C,1,0.15,0.17,100,1.27007814798361e-05,109684.799624645,178494.878674204,5526.29346793983,98969.7436143713,0.171,0.21,39,full_initial_cycle_measured,full_post_fault_DFT_windows_measured
